Version 4
SHEET 1 1940 1108
WIRE -1888 -560 -2048 -560
WIRE -1456 -560 -1888 -560
WIRE -1152 -560 -1456 -560
WIRE -784 -560 -1152 -560
WIRE -384 -560 -784 -560
WIRE -1456 -496 -1456 -560
WIRE -1456 -496 -1504 -496
WIRE -1152 -496 -1152 -560
WIRE -1104 -496 -1152 -496
WIRE -1888 -480 -1888 -560
WIRE -1456 -480 -1456 -496
WIRE -1152 -480 -1152 -496
WIRE -1312 -464 -1408 -464
WIRE -1200 -464 -1312 -464
WIRE -1504 -432 -1504 -496
WIRE -1456 -432 -1504 -432
WIRE -1104 -432 -1104 -496
WIRE -1104 -432 -1152 -432
WIRE -1312 -352 -1312 -464
WIRE -1152 -352 -1152 -384
WIRE -1152 -352 -1312 -352
WIRE -784 -352 -784 -560
WIRE -736 -352 -784 -352
WIRE -784 -336 -784 -352
WIRE -1456 -320 -1456 -384
WIRE -1040 -320 -1456 -320
WIRE -832 -320 -1040 -320
WIRE -736 -288 -736 -352
WIRE -736 -288 -784 -288
WIRE -1456 -208 -1456 -320
WIRE -1152 -208 -1152 -352
WIRE -1040 -208 -1040 -320
WIRE -880 -208 -1040 -208
WIRE -784 -208 -784 -240
WIRE -784 -208 -816 -208
WIRE -1504 -128 -1632 -128
WIRE -1040 -128 -1104 -128
WIRE -784 -112 -784 -208
WIRE -752 -112 -784 -112
WIRE -784 -64 -784 -112
WIRE -160 -64 -784 -64
WIRE -16 -64 -160 -64
WIRE 176 -64 48 -64
WIRE -1456 -48 -1456 -112
WIRE -1296 -48 -1456 -48
WIRE -1152 -48 -1152 -112
WIRE -1152 -48 -1296 -48
WIRE -1888 -16 -1888 -400
WIRE -1760 -16 -1888 -16
WIRE -688 -16 -688 -112
WIRE 176 -16 176 -64
WIRE -1888 16 -1888 -16
WIRE -1296 16 -1296 -48
WIRE -784 16 -784 -64
WIRE -1888 64 -1936 64
WIRE -1296 64 -1344 64
WIRE -736 64 -784 64
WIRE -1760 96 -1760 -16
WIRE -1760 96 -1840 96
WIRE -1248 96 -1760 96
WIRE -832 96 -1248 96
WIRE -1936 128 -1936 64
WIRE -1888 128 -1888 112
WIRE -1888 128 -1936 128
WIRE -1344 128 -1344 64
WIRE -1296 128 -1296 112
WIRE -1296 128 -1344 128
WIRE -784 128 -784 112
WIRE -736 128 -736 64
WIRE -736 128 -784 128
WIRE 176 144 176 64
WIRE -1888 192 -1888 128
WIRE -1296 192 -1296 128
WIRE -784 192 -784 128
WIRE -160 192 -160 -64
WIRE -1632 464 -1632 -128
WIRE -1632 464 -2208 464
WIRE -1040 464 -1040 -128
WIRE -160 464 -160 272
WIRE -160 464 -1040 464
WIRE -2208 528 -2208 464
WIRE -160 656 -160 464
WIRE -160 912 -160 736
FLAG -1888 192 0
FLAG -1296 192 0
FLAG -1152 -160 0
FLAG -1456 -160 0
FLAG -784 192 0
FLAG -384 -560 Vdd
FLAG 1184 -128 Vdd
FLAG 1184 -48 0
FLAG 1024 -48 0
FLAG 1024 -128 Vdd/2
FLAG 176 144 0
FLAG -160 912 Vdd/2
FLAG -2208 608 0
FLAG -688 -16 0
SYMBOL cmosn -1104 -208 M0
SYMATTR InstName M1
SYMATTR Value2 l=0.5u w=0.6u
SYMBOL cmosn -1504 -208 R0
SYMATTR InstName M2
SYMATTR Value2 l=0.5u w=0.6u
SYMBOL cmosn -1248 16 M0
SYMATTR InstName M3
SYMATTR Value2 l=500n w=12u
SYMBOL cmosn -1840 16 M0
SYMATTR InstName M4
SYMATTR Value2 l=500n w=12u
SYMBOL current -1888 -480 R0
WINDOW 123 0 0 Left 0
WINDOW 39 0 0 Left 0
SYMATTR InstName I1
SYMATTR Value 30µ
SYMBOL cmosp -1408 -384 R180
SYMATTR InstName M5
SYMATTR Value2 l=0.5u w=27u
SYMBOL cmosp -1200 -384 M180
SYMATTR InstName M6
SYMATTR Value2 l=0.5u w=27u
SYMBOL cmosn -832 16 R0
SYMATTR InstName M7
SYMATTR Value2 l=500n w=14u
SYMBOL cmosp -832 -240 M180
SYMATTR InstName M8
SYMATTR Value2 l=0.5u w=66u
SYMBOL voltage 1184 -144 R0
WINDOW 123 0 0 Left 0
WINDOW 39 0 0 Left 0
SYMATTR InstName V1
SYMATTR Value 1.8
SYMBOL cap -816 -224 R90
WINDOW 0 0 32 VBottom 2
WINDOW 3 32 32 VTop 2
SYMATTR InstName C1
SYMATTR Value 4p
SYMBOL voltage 1024 -144 R0
WINDOW 123 0 0 Left 0
WINDOW 39 0 0 Left 0
SYMATTR InstName V2
SYMATTR Value 0.9
SYMBOL res 160 -32 R0
SYMATTR InstName R1
SYMATTR Value 10k
SYMBOL res -176 176 R0
SYMATTR InstName R2
SYMATTR Value 10k
SYMBOL res -176 640 R0
SYMATTR InstName R3
SYMATTR Value 10k
SYMBOL voltage -2208 512 R0
WINDOW 123 24 124 Left 2
WINDOW 39 0 0 Left 0
SYMATTR InstName V3
SYMATTR Value SINE(0.9 100m 5k)
SYMBOL cap 48 -80 R90
WINDOW 0 0 32 VBottom 2
WINDOW 3 32 32 VTop 2
SYMATTR InstName C2
SYMATTR Value 10µ
SYMBOL cap -688 -128 R90
WINDOW 0 0 32 VBottom 2
WINDOW 3 32 32 VTop 2
SYMATTR InstName C3
SYMATTR Value 10p
TEXT 976 64 Left 2 !.include tsmc018.lib
TEXT 1328 -88 Left 2 ;Vdd/2 is generated by the user by a resistive divider
TEXT -2242 1034 Left 2 !.tran 1m
